/*--------------------------------*- C++ -*----------------------------------*\
  =========                 |
  \\      /  F ield         | OpenFOAM: The Open Source CFD Toolbox
   \\    /   O peration     | Website:  https://openfoam.org
    \\  /    A nd           | Version:  7
     \\/     M anipulation  |
\*---------------------------------------------------------------------------*/
FoamFile
{
    version     2.0;
    format      ascii;
    class       volScalarField;
    object      C.anions;
}
// * * * * * * * * * * * * * * * * * * * * * * * * * * * * * * * * * * * * * //

dimensions      [ 0 0 0 0 0 0 0 ];

internalField   uniform 0;

boundaryField
{
    anode
    {
        type            fixedValue;
        value           uniform 1;
        // type noFlux;
        /*
        type            RobinPhi;
        RobinK 0;
        RobinF 0;
        RobinD 1;
        phi "phiNP";
        value           uniform 1;
        */
    }

    cathode
    {
        // type noFlux;
        type    zeroGradient;
        /*
        type            RobinPhi;
        RobinK 0;
        RobinF 0;
        RobinD 1;
        phi "phiNP";
        value           uniform 1;
        */
    }

    "top|bottom"
    {
        type            empty;
        // type            noFlux;
    }

    frontAndBack
    {
        type            empty;
    }
}

// ************************************************************************* //
