/*--------------------------------*- C++ -*----------------------------------*\
  =========                 |
  \\      /  F ield         | OpenFOAM: The Open Source CFD Toolbox
   \\    /   O peration     | Website:  https://openfoam.org
    \\  /    A nd           | Version:  7
     \\/     M anipulation  |
\*---------------------------------------------------------------------------*/
FoamFile
{
    version     2.0;
    format      ascii;
    class       volScalarField;
    object      muv;
}
// * * * * * * * * * * * * * * * * * * * * * * * * * * * * * * * * * * * * * //

dimensions      [0 2 0 0 0 0 0];

val 1e-0;

internalField   uniform $val;

// mvInit  #codeStream
// {
//         code
//         #{
//             const IOdictionary& d = static_cast<const IOdictionary&>(dict);
//             const fvMesh& mesh = refCast<const fvMesh>(d.db());
//             scalarField fld
//             (
//               (
//               scalar(0.1)
//               *
//               Foam::cos(scalar(2.)*pi*mesh.C().component(0))
//               *
//               Foam::cos(scalar(2.)*pi*mesh.C().component(1))
//               //+
//               //scalar(1)
//               )
//               ///
//               //scalar(2)
//             );
//             writeEntry(os,"",fld);
//         #};


//         #inputMode merge
// };

// internalField $mvInit;

boundaryField
{
    "left|right|top|bottom"
    {
        // type            calculated;
        type            fixedValue;
        value           uniform     $val;
    }

    frontAndBack
    {
        type            empty;
    }
}

// ************************************************************************* //
