/*--------------------------------*- C++ -*----------------------------------*\
  =========                 |
  \\      /  F ield         | OpenFOAM: The Open Source CFD Toolbox
   \\    /   O peration     | Website:  https://openfoam.org
    \\  /    A nd           | Version:  7
     \\/     M anipulation  |
\*---------------------------------------------------------------------------*/
FoamFile
{
    version     2.0;
    format      ascii;
    class       dictionary;
    object      blockMeshDict;
}
// * * * * * * * * * * * * * * * * * * * * * * * * * * * * * * * * * * * * * //

convertToMeters 1.0;

X1 3.0;
X2 4.0;
X3 5.0;
Z1 0.6;
Z2 2.0;

vertices
(
    (0     0 0)
    ($X1   0 0)
    ($X2   0 0)
    ($X3   0 0)
    (0     0 $Z1)
    ($X1   0 $Z1)
    ($X2   0 $Z1)
    ($X3   0 $Z1)
    ($X1   0 $Z2)
    ($X2   0 $Z2)
    (0   0.1 0)
    ($X1 0.1 0)
    ($X2 0.1 0)
    ($X3 0.1 0)
    (0   0.1 $Z1)
    ($X1 0.1 $Z1)
    ($X2 0.1 $Z1)
    ($X3 0.1 $Z1)
    ($X1 0.1 $Z2)
    ($X2 0.1 $Z2)
);

blocks
(
    hex (0 1 11 10 4 5 15 14) (120 1 24) simpleGrading (1 1 1)
    hex (1 2 12 11 5 6 16 15) (40  1 24) simpleGrading (1 1 1)
    hex (2 3 13 12 6 7 17 16) (40  1 24) simpleGrading (1 1 1)
    hex (5 6 16 15 8 9 19 18) (40  1 56) simpleGrading (1 1 1)
    
);

edges
(
);

boundary
(
    anode
    {
        type patch;
        faces
        (
            (0 4 14 10)
        );
    }

    cathode1
    {
        type patch;
        faces
        (
            (8 9 19 18)
        );
    }

    cathode2
    {
        type patch;
        faces
        (
            (3 13 17 7)
        );
    }

    bottom
    {
        type patch;
        faces
        (
            (0 10 11 1)
            (1 11 12 2)
            (2 12 13 3)
        );
    }

    top1
    {
        type patch;
        faces
        (
            (4 5 15 14)
            (5 8 18 15)
        );
    }

    top2
    {
        type patch;
        faces
        (
            (6 7 17 16)
            (6 16 19 9)
        );
    }

    frontAndBack
    {
        type empty;
        faces
        (
            (0 1 5 4)
            (1 2 6 5)
            (2 3 7 6)
            (5 6 9 8)
            (10 14 15 11)
            (11 15 16 12)
            (12 16 17 13)
            (15 18 19 16)
        );
    }
);

mergePatchPairs
(
);

// ************************************************************************* //
