/*--------------------------------*- C++ -*----------------------------------*\
  =========                 |
  \\      /  F ield         | OpenFOAM: The Open Source CFD Toolbox
   \\    /   O peration     | Website:  https://openfoam.org
    \\  /    A nd           | Version:  7
     \\/     M anipulation  |
\*---------------------------------------------------------------------------*/
FoamFile
{
    version     2.0;
    format      ascii;
    class       volScalarField;
    object      mu;
}
// * * * * * * * * * * * * * * * * * * * * * * * * * * * * * * * * * * * * * //

dimensions      [0 2 0 0 0 0 0];

internalField     uniform 1e-11;

// internalField  #codeStream
//     {
//         codeInclude
//         #{
//             #include "fvCFD.H"
//         #};

//         codeOptions
//         #{
//             -I$(LIB_SRC)/finiteVolume/lnInclude \
//             -I$(LIB_SRC)/meshTools/lnInclude
//         #};

//         codeLibs
//         #{
//             -lmeshTools \
//             -lfiniteVolume
//         #};

//         code
//         #{
//             const IOdictionary& d = static_cast<const IOdictionary&>(dict);
//             const fvMesh& mesh = refCast<const fvMesh>(d.db());
//             scalarField fld
//             (
//               Foam::exp
//               (
//                 2
//                 *
//                 Foam::cos(scalar(2.)*constant::mathematical::pi*mesh.C().component(0)->primitiveField())
//                 *
//                 Foam::cos(scalar(2.)*constant::mathematical::pi*mesh.C().component(1)->primitiveField())
//                 -
//                 8
//               )
//             );
//             writeEntry(os,"",fld);
//         #};

//     };

boundaryField
{
    "left|right|top|bottom"
    {
        type            zeroGradient;
    }

    frontAndBack
    {
        type            empty;
    }
}

// ************************************************************************* //
