/*--------------------------------*- C++ -*----------------------------------*\
  =========                 |
  \\      /  F ield         | OpenFOAM: The Open Source CFD Toolbox
   \\    /   O peration     | Website:  https://openfoam.org
    \\  /    A nd           | Version:  7
     \\/     M anipulation  |
\*---------------------------------------------------------------------------*/
FoamFile
{
    version     2.0;
    format      ascii;
    class       dictionary;
    location    "constant";
    object      transportProperties;
}
// * * * * * * * * * * * * * * * * * * * * * * * * * * * * * * * * * * * * * //

beta    beta    [0 0 0 0 0 0 0]    1e-8;

// method  "Block-Jacobi";
 method  "Block-Gauss-Seidel";
// method "S3PJ-alternate";
// method  "S2PJ-alternate";
// method  "S2PJ-a";
// method  "S2PJ-b"; // NOT WORKING DUE TO A DIMENSIONS PROBLEM

// ************************************************************************* //
