/*--------------------------------*- C++ -*----------------------------------*\
  =========                 |
  \\      /  F ield         | OpenFOAM: The Open Source CFD Toolbox
   \\    /   O peration     | Website:  https://openfoam.org
    \\  /    A nd           | Version:  7
     \\/     M anipulation  |
\*---------------------------------------------------------------------------*/
FoamFile
{
    version     2.0;
    format      ascii;
    class       dictionary;
    location    "constant";
    object      electrokineticProperties;
}
// * * * * * * * * * * * * * * * * * * * * * * * * * * * * * * * * * * * * * //

mu      mu      [0 2 0 0 0 0 0]         1.0;
mv      mv      [0 2 0 0 0 0 0]         2.0;
beta    beta    [0 0 0 0 0 0 0]         0.1;
// method  "Block-Jacobi";
method  "Block-Gauss-Seidel";
// method  "S2PJ-alternate";
// method  "S2PJ-a";
// method  "S2PJ-b"; // NOT WORKING DUE TO A DIMENSIONS PROBLEM


// ************************************************************************* //
