/*--------------------------------*- C++ -*----------------------------------*\
  =========                 |
  \\      /  F ield         | OpenFOAM: The Open Source CFD Toolbox
   \\    /   O peration     | Website:  https://openfoam.org
    \\  /    A nd           | Version:  7
     \\/     M anipulation  |
\*---------------------------------------------------------------------------*/
FoamFile
{
    version     2.0;
    format      ascii;
    class       dictionary;
    location    "constant";
    object      electrokineticProperties;
}
// * * * * * * * * * * * * * * * * * * * * * * * * * * * * * * * * * * * * * //

epsilonR  epsilonR [ 0 2 -1 0 0 0 0 ] 1;

Cprop
{
    Z        Z [0 0 -1 0 0 0 0]     1.0;
    D        D [0 2 -1 0 0 0 0]     0.1;
    Dphi     Dphi [0 2 0 0 0 0 0]   1.0;
}

// ************************************************************************* //
