/*--------------------------------*- C++ -*----------------------------------*\
  =========                 |
  \\      /  F ield         | OpenFOAM: The Open Source CFD Toolbox
   \\    /   O peration     | Website:  https://openfoam.org
    \\  /    A nd           | Version:  7
     \\/     M anipulation  |
\*---------------------------------------------------------------------------*/
FoamFile
{
    version     2.0;
    format      ascii;
    class       dictionary;
    object      blockMeshDict;
}
// * * * * * * * * * * * * * * * * * * * * * * * * * * * * * * * * * * * * * //

convertToMeters 0.1;

vertices
(
    (0 0 0)
    (5 0 0)
    (5 0.1 0)
    (0 0.1 0)
    (0 0 1)
    (5 0 1)
    (5 0.1 1)
    (0 0.1 1)
);

blocks
(
    hex (0 1 2 3 4 5 6 7) (100 1 20)
    simpleGrading
    (
        1
        1
        1
    )
);

edges
(
);

boundary
(
    anode
    {
        type patch;
        faces
        (
            (0 4 7 3)
        );
    }

    cathode
    {
        type patch;
        faces
        (
            (2 6 5 1)
        );
    }

    bottom
    {
        type patch;
        faces
        (
            (0 3 2 1)
        );
    }

    top    
    {
        type patch;
        faces
        (
            (4 5 6 7)
        );
    }

    frontAndBack
    {
        type empty;
        faces
        (
            (3 7 6 2)
            (1 5 4 0)
        );
    }
);

mergePatchPairs
(
);

// ************************************************************************* //
