/*--------------------------------*- C++ -*----------------------------------*\
  =========                 |
  \\      /  F ield         | OpenFOAM: The Open Source CFD Toolbox
   \\    /   O peration     | Website:  https://openfoam.org
    \\  /    A nd           | Version:  7
     \\/     M anipulation  |
\*---------------------------------------------------------------------------*/
FoamFile
{
    version     2.0;
    format      ascii;
    class       dictionary;
    location    "constant";
    object      electrokineticProperties;
}
// * * * * * * * * * * * * * * * * * * * * * * * * * * * * * * * * * * * * * //

mA      mA      [0 2 0 0 0 0 0]         1.0;
mB      mB      [0 2 0 0 0 0 0]         0.5;
mC      mC      [0 2 0 0 0 0 0]         0.5;
mD      mD      [0 2 0 0 0 0 0]         1.0;


// ************************************************************************* //
