/*--------------------------------*- C++ -*----------------------------------*\
  =========                 |
  \\      /  F ield         | OpenFOAM: The Open Source CFD Toolbox
   \\    /   O peration     | Website:  https://openfoam.org
    \\  /    A nd           | Version:  8
     \\/     M anipulation  |
\*---------------------------------------------------------------------------*/
FoamFile
{
    version     2.0;
    format      ascii;
    class       polyBoundaryMesh;
    location    "constant/polyMesh";
    object      boundary;
}
// * * * * * * * * * * * * * * * * * * * * * * * * * * * * * * * * * * * * * //

5
(
    left
    {
        type            patch;
        nFaces          50;
        startFace       4900;
    }
    right
    {
        type            patch;
        nFaces          50;
        startFace       4950;
    }
    bottom
    {
        type            patch;
        nFaces          50;
        startFace       5000;
    }
    top
    {
        type            patch;
        nFaces          50;
        startFace       5050;
    }
    frontAndBack
    {
        type            empty;
        inGroups        List<word> 1(empty);
        nFaces          5000;
        startFace       5100;
    }
)

// ************************************************************************* //
