/*--------------------------------*- C++ -*----------------------------------*\
  =========                 |
  \\      /  F ield         | OpenFOAM: The Open Source CFD Toolbox
   \\    /   O peration     | Website:  https://openfoam.org
    \\  /    A nd           | Version:  7
     \\/     M anipulation  |
\*---------------------------------------------------------------------------*/
FoamFile
{
    version     2.0;
    format      ascii;
    class       dictionary;
    location    "constant";
    object      electrokineticProperties;
}
// * * * * * * * * * * * * * * * * * * * * * * * * * * * * * * * * * * * * * //

L       L       [0 0 -1 0 0 0 0]    1.0; // Lscheme parameter

Cprop
{
    m       m       [0  0  0 0 0 0 0]    1.0;
    a       a       [0  2 -1 0 0 0 0]    1.0;
    z1      z1      [0 -2  0 0 0 0 0]    1.0;
    z2      z2      [0  2 -1 0 0 0 0]    1.0;
}

// ************************************************************************* //
